# Run_Name
nvt.benzene
!------------------------------------------------------------------------------

# Sim_Type
NVT_MC
!------------------------------------------------------------------------------

# Mixing_Rule
LB

# Nbr_Species
1
!------------------------------------------------------------------------------

# VDW_Style
LJ   cut_tail   14.00
!------------------------------------------------------------------------------

# Rcutoff_Low
1.0
!------------------------------------------------------------------------------

# Mixing_Rule
LB
!------------------------------------------------------------------------------

# Charge_Style
coul ewald 14.0 0.0000001
!------------------------------------------------------------------------------

# Molecule_Files
benzene.mcf 1
!----------------------------------------------------------one line per species

# Box_Info
1
CUBIC
50.0
!-------------------------------------------------------line 1: number of boxes
!--------------------------------------------------------------line 2: box type
!--------------------------------------------------------------line 3: box size
!--------------------------------------------------------------repeat for second box

# Temperature_Info
510.0
!----------------------------------------------------------one temperature per box

# Move_Probability_Info

# Prob_Translation 
0.40
0.50
14.0

# Prob_Rotation
0.30
30.0
180.0

# Prob_Regrowth
0.30
1.0

# Done_Probability_Info
!---------------------one line for each box and one entry/line for each species
!-----------------------------------------each molecule moves per volume change

# Start_Type
read_config 1 initial.xyz

!--------make_config: one line for each species and one entry/line for each box
!------------------------------------------------------------read_old: filename
!----------------------------------------------------------checkpoint: filename

# Run_Type
Equilibration 100 100
!-------------------------Equilibration: update maximum widths every 100 steps/update maximum
!-------------------------volume displacement every 100 steps

# Simulation_Length_Info
Units     Steps
prop_freq   1
coord_freq  1
run         1
!------------------ simulation length every 2200 steps, XYZ output every 2200 steps, property
!---------------------------------------output every 100 steps

# Seed
1211131639 1211131640
!------------------------------------------------------------------------------

# Property_Info 1
Energy_Total
Density
Nmols
Volume
Pressure
!------------------------------------------------------------------------------

# Fragment_Files
species1/frag1/frag1.dat  1
!---------------------------------------------------------one line per fragment

# CBMC_Info
kappa_ins 12
kappa_rot  0
kappa_dih 12
rcut_cbmc 6.5 6.5
!------------------------------------------------------------------------------

# Average_Info
1

# Pair_Energy
TRUE
!------------------------------------------------------------------------------

END
