
# Run_Name
works

# Sim_Type
NVT_MC

# Nbr_Species
1

# VDW_Style
LJ cut_tail 12.0
!------------------------------------------------------------------------------

# Charge_Style
NONE
!------------------------------------------------------------------------------

# Intra_Scaling
0.0 0.0 0.0 1.0
!----------------------------------------------vdw, coul lines for each species

# Mixing_Rule
LB
!------------------------------------------------------------------------------

# Seed_Info
21498 489625
!------------------------------------------------------------------------------

# Rcutoff_Low
1.0
!------------------------------------------------------------------------------

# Molecule_Files
lj.mcf 2
!----------------------------------------------------------one line per species

# Box_Info
1
CUBIC
100.0
!-------------------------------------------------------line 1: number of boxes
!--------------------------------------------------------------line 2: box type
!--------------------------------------------------------------line 3: box size

# Temperature_Info
300.0
!------------------------------------------------------------------------------

# Move_Probability_Info

# Prob_Translation
1.0
1.00

# Done_Probability_Info
!---------------------one line for each box and one entry/line for each species
!-----------------------------------------each molecule moves per volume change

# Start_Type
read_config 2 lj.xyz
!---------------------------------------make_config: one entry for each species
!-----------------------------read_config: one entry for each species, filename
!--------add_to_config: read_config arguments followed by make_config arguments
!----------------------------------------------------------checkpoint: filename

# Run_Type
Equilibration  100
!-------------------------Equilibration: update maximum widths every 100 sweeps
!-----------------------------Production: report success ratio every 100 sweeps


# Average_Info
1
!------------------------------------------------------------------------------

# Simulation_Length_Info
Units        Steps
Prop_Freq    1
Coord_Freq   1
Run          0
!------------------ 180 moves = 1 sweep; output every 10 sweeps; run 100 sweeps

# Property_Info 1 
Energy_Total
Pressure
!------------------------------------------------------------------------------

# Fragment_Files
!---------------------------------------------------------one line per fragment

# CBMC_Info
kappa_ins 12
kappa_rot 0
kappa_dih 10
rcut_cbmc 6.5 
!------------------------------------------------------------------------------

END
