# Run_Name
test6.out

# Sim_Type
nvt

# Nbr_Species
1

# VDW_Style
lj cut_tail 10.620

# Charge_Style
none

# Intra_Scaling
0.0 0.0 0.0 1.0

# Mixing_Rule
LB

# Seed_Info
1 2

# Rcutoff_Low
0.0

# Molecule_Files
test6.mcf 800

# Box_Info
1
cubic
35.40

# Temperature_Info
300.0

# Move_Probability_Info

# Prob_Translation
1.0
0.79 0.5

# Done_Probability_Info

# Start_Type
read_config 800 nist1.xyz

# Run_Type
Equilibration 100

# Average_Infor
1

# Simulation_Length_Info
units steps
prop_freq 1
coord_freq 1
run 0

END
