# Run_Name
test5.out

# Sim_Type
nvt

# Nbr_Species
1

# VDW_Style
lj cut_tail 14.0

# Charge_Style
coul ewald 14.0 0.0000001

# Intra_Scaling
0.0 0.0 0.0 1.0

# Seed_Info
1 2

# Rcutoff_Low
1.0

# Molecule_Files
test5.mcf 1

# Box_Info
1
cubic
50.0

# Temperature_Info
510.0

# Move_Probability_Info

# Prob_Translation
0.40
0.50
14.0

# Done_Probability_Info

# Start_Type
read_config 1 test5.inp.xyz

# Run_Type
Equilibration 100

# Simulation_Length_Info
units steps
prop_freq 1
coord_freq 1
run 0

# Property_Info 1
Energy_Total
Pressure
Volume
Nmols
Density

# Fragment_Files

# CBMC_Info
kappa_ins 12
kappa_rot 0
kappa_dih 12
rcut_cbmc 6.5 6.5

# Pair_Energy
TRUE

END