# Run_Name
test7.out

# Sim_Type
nvt

# Nbr_Species
1

# VDW_Style
lj cut_tail 10.

# Charge_Style
coul ewald 10. 0.000393669

# Seed_Info
1 2

# Rcutoff_Low
0.850

# Molecule_Files
test7.water.mcf 100

# Box_Info
1
cubic
20.0

# Temperature_Info
300.0

# Move_Probability_Info

# Prob_Translation
1.0
0.0 0.0

# Done_Probability_Info

# Start_Type
read_config 100 test7.water1.xyz

# Run_Type
Equilibration 100

# Simulation_Length_Info
units steps
prop_freq 1
coord_freq 1
run 0

END
