! This is the input file for a short simulation of dimethylether

# Run_Name
nvt.out
!------------------------------------------------------------------------------

# Sim_Type
nvt_mc
!------------------------------------------------------------------------------

# Nbr_Species
1
!------------------------------------------------------------------------------

# VDW_Style
lj cut_tail 12.0
!------------------------------------------------------------------------------

# Charge_Style
coul ewald 12.0 0.000001
!------------------------------------------------------------------------------

# Seed_Info
151 9352
!------------------------------------------------------------------------------

# Rcutoff_Low
2.0
!------------------------------------------------------------------------------

# Molecule_Files
dme.mcf 110
!----------------------------------------------------------one line per species

# Box_Info
1
cubic
24.
!-------------------------------------------------------line 1: number of boxes
!--------------------------------------------------------------line 2: box type
!--------------------------------------------------------------line 3: box size

# Temperature_Info
329.0
!------------------------------------------------------------------------------

# Move_Probability_Info

# Prob_Translation
110
1.00

# Prob_Rotation
110
38.0

# Prob_Regrowth
110
1.0

# Done_Probability_Info
!---------------------one line for each box and one entry/line for each species
!-----------------------------------------each molecule moves per volume change

# Start_Type
read_config 100 nvt.inp.xyz
!---------------------------------------make_config: one entry for each species
!-----------------------------read_config: one entry for each species, filename
!--------add_to_config: read_config arguments followed by make_config arguments
!----------------------------------------------------------checkpoint: filename

# Run_Type
production   1100
!-----------------------------Production: report success ratio every 100 sweeps

# Simulation_Length_Info
units        sweeps
prop_freq    10
coord_freq   10
run          100
!------------------ 330 moves = 1 sweep; output every 10 sweeps; run 100 sweeps

# Property_Info 1 
energy_total
pressure
!------------------------------------------------------------------------------

# Fragment_Files
species1/frag1/frag1.dat  1
!---------------------------------------------------------one line per fragment

# CBMC_Info
kappa_ins 12
rcut_cbmc 6.5
!------------------------------------------------------------------------------

END
