! This is the input file for a short simulation of dimethylether

# Run_Name
nvt.out
!------------------------------------------------------------------------------

# Sim_Type
NVT_MC
!------------------------------------------------------------------------------

# Nbr_Species
1
!------------------------------------------------------------------------------

# VDW_Style
LJ cut_tail 14.0
!------------------------------------------------------------------------------

# Charge_Style
coul Ewald 14.0 0.000001
!------------------------------------------------------------------------------

# Intra_Scaling
0.0 0.0 0.0 1.0
0.0 0.0 0.0 1.0
!----------------------------------------------vdw, coul lines for each species

# Mixing_Rule
LB
!------------------------------------------------------------------------------

# Seed_Info
151 9352
!------------------------------------------------------------------------------

# Rcutoff_Low
2.0
!------------------------------------------------------------------------------

# Molecule_Files
dme.mcf 300
!----------------------------------------------------------one line per species

# Box_Info
1
CUBIC
33.65404426
!-------------------------------------------------------line 1: number of boxes
!--------------------------------------------------------------line 2: box type
!--------------------------------------------------------------line 3: box size

# Temperature_Info
329.0
!------------------------------------------------------------------------------

# Move_Probability_Info

# Prob_Translation
0.333333
1.00

# Prob_Rotation
0.333333
38.0

# Prob_Regrowth
0.333334
1.0

# Done_Probability_Info
!---------------------one line for each box and one entry/line for each species
!-----------------------------------------each molecule moves per volume change

# Start_Type
read_old
nvt.inp.xyz
!--------make_config: one line for each species and one entry/line for each box
!------------------------------------------------------------read_old: filename
!----------------------------------------------------------checkpoint: filename

# Run_Type
Production   6667  100
!-----------------------------Production: report success ratio every 100 sweeps

# Average_Info
1
!------------------------------------------------------------ 0 == yes, 1 == no

# Simulation_Length_Info
Units        Steps
Prop_Freq    3000
Coord_Freq   3000
MCsteps      30000
# Done_Simulation_Length_Info
!------------------ 300 moves = 1 sweep; output every 10 sweeps; run 100 sweeps

# Property_Info 1 
Energy_Total
Pressure
Volume
Density
!------------------------------------------------------------------------------

# Fragment_Files
species1/frag1/frag1.dat  1
!---------------------------------------------------------one line per fragment

# CBMC_Info
kappa_ins 12
kappa_rot 0
kappa_dih 10
rcut_cbmc 6.5
!------------------------------------------------------------------------------

END
