! This is the input file for a short Widom insertion simulation of diethylether

# Run_Name
dee_widom.out
!------------------------------------------------------------------------------

# Sim_Type
pregen
!------------------------------------------------------------------------------

# Nbr_Species
1
!------------------------------------------------------------------------------

# VDW_Style
lj cut_tail 7.0
!------------------------------------------------------------------------------

# Charge_Style
coul ewald 7.0 0.000001
!------------------------------------------------------------------------------

# Mixing_Rule
LB
!------------------------------------------------------------------------------

# Seed_Info
82638601 249702601
!------------------------------------------------------------------------------

# Rcutoff_Low
2.0
!------------------------------------------------------------------------------

# Molecule_Files
dee.mcf 30
!----------------------------------------------------------one line per species

# Box_Info
1
cubic
17.5
!-------------------------------------------------------line 1: number of boxes
!--------------------------------------------------------------line 2: box type
!--------------------------------------------------------------line 3: box size

# Temperature_Info
343.0
!------------------------------------------------------------------------------

# Pregen_Info
dee_traj.H dee_traj.xyz

# Widom_Insertion
true
cbmc 10000 1 4

# Cell_List_Overlap
true

# Simulation_Length_Info
units        steps
prop_freq    1
coord_freq   1
run          11

# Property_Info 1 
energy_total
pressure
volume
density
!------------------------------------------------------------------------------

# Fragment_Files
species1/frag1/frag1.dat  1
species1/frag2/frag2.dat  2
species1/frag3/frag3.dat  3
!---------------------------------------------------------one line per fragment

# CBMC_Info
kappa_ins 12
kappa_dih 10
rcut_cbmc 6.5 
!------------------------------------------------------------------------------

END
