! This is the input file for a GCMC simulation of a mixture of CH4 and C4H10 at 300.0 K.

# Run_Name
methane_butane
!--------------

# Sim_Type
GCMC
!---------------

# Nbr_Species
2
!----------------

# VDW_Style
LJ cut_tail 13.0
!----------------

# Charge_Style
NONE
NONE
!----------------

# Intra_Scaling
0.0  0.0  0.0  1.0
0.0  0.0  0.0  1.0
0.0  0.0  0.0  1.0
0.0  0.0  0.0  1.0
!------------------

# Mixing_Rule
LB
!----------------

# Seed_Info
45879702104 5976323210

!-------------------

# Rcutoff_Low
1.0
!----------------

# Pair_Energy
TRUE
!-----------

# Molecule_Files
CH4.mcf 300
C4H10.mcf 300
!------------------------

# Box_Info
1
CUBIC
100.0  100.0 100.0
!-------------------------

# Temperature_Info
300.0 
!------------------

# Chemical_Potential_Info
-35.41  -37.0
!------------------------

# Move_Probability_Info

# Prob_Translation
0.2
2.0  2.0

# Prob_Rotation
0.2
0.0  180.0

# Prob_Regrowth
0.2
0.0 1.0

# Prob_Insertion
0.20
insertion method
reservoir
insertion method
reservoir

# Prob_Deletion
0.20

# Done_Probability_Info
!----------------------

# Start_Type
make_config
10
90

!------------------

# Run_Type
Equilibration   600  
!------------------

# Average_Info
1
!-------------

# Simulation_Length_Info
Units      Steps
Prop_Freq    500
Coord_Freq   25000
MCsteps      50000
# Done_Simulation_Length_Info
!----------------------------

# Property_Info 1 
Energy_Total
Nmols
Volume
Pressure

!----------------

# Fragment_Files
species1/frag1/frag1.dat  1
species2/frag1/frag1.dat  2
species2/frag2/frag2.dat  3
!---------------------------------------------------------one line per fragment

# CBMC_Info
kappa_ins 12
kappa_rot  0 
kappa_dih 10
rcut_cbmc 6.5 
!------------


END
