! This is the input file for a short GCMC simulation of Ntrogen in the gas phase at 77.0 K.

# Run_Name
nitrogen
!--------------

# Sim_Type
GCMC
!---------------

# Nbr_Species
1
!----------------

# VDW_Style
LJ cut_tail 50.0
!----------------

# Charge_Style
coul Ewald 50.0 1E-5
!----------------

# Intra_Scaling
0.0  0.0  0.0  1.0
0.0  0.0  0.0  1.0
!------------------

# Mixing_Rule
LB
!----------------

# Seed_Info
5735292573 42175410622

!-------------------

# Rcutoff_Low
1.0
!----------------

# Pair_Energy
TRUE
!-----------

# Molecule_Files
N23S.mcf 1000
!------------------------

# Box_Info
1
CUBIC
200.0  200.0 200.0
!-------------------------

# Temperature_Info
77.0 
!------------------

# Chemical_Potential_Info
-7.0
!------------------------


# Move_Probability_Info

# Prob_Translation
0.25
10.0

# Prob_Rotation
0.25
180.0


# Prob_Insertion
0.25
insertion method
reservoir

# Prob_Deletion
0.25

# Done_Probability_Info
!----------------------

# Start_Type
make_config
50

!------------------

# Run_Type
Equilibration   600  
!------------------

# Average_Info
1
!-------------

# Simulation_Length_Info
Units      Steps
Prop_Freq    400
Coord_Freq   4000
MCsteps      4000
# Done_Simulation_Length_Info
!----------------------------

# Property_Info 1 
Energy_Total
Nmols
Density
Pressure
!----------------

# Fragment_Files
species1/frag1/frag1.dat 1 

# CBMC_Info
kappa_ins 12
kappa_rot  0 
kappa_dih 10
rcut_cbmc 6.5 
!------------


END
