80 
C   -12.1574363611709       -39.0318795186820       -38.6452583737642     
 C   -12.1664310795702       -38.8225158210976       -40.1709339412341     
 O   -13.4068189079097       -39.2777105680052       -40.6632117739870     
 C   -13.5272665121098       -39.1141726530788       -42.0585066263476     
 C   -14.8455006526905       -39.5031104361508       -42.7531809408335     
 C   -5.91464559867603        8.32884211847698        32.3817736645265     
 C   -5.67101062313103        9.81855439442206        32.0768157435116     
 O   -5.87687910496772        9.93366628515016        30.6866829772895     
 C   -6.08308015363282        11.2989867402927        30.4012338884860     
 C   -7.55648993540140        11.7420445013266        30.4671860459662     
 C    30.6458543173319       -24.9676763109227        36.8199733075594     
 C    30.3849670700324       -25.1533576579638        35.3136332790275     
 O    31.6171020470203       -25.2055004571392        34.6300938040136     
 C    31.6140798670008       -24.7447860113139        33.2974899372040     
 C    31.1459916176711       -25.8150954165660        32.2940371881578     
 C   -44.5751367872997       -17.0370495069387       -14.1939701637702     
 C   -45.0891642485737       -18.1828217689395       -13.3025770447223     
 O   -45.6679176704529       -17.7815693159554       -12.0810441419471     
 C   -45.6810128044754       -18.8418871837712       -11.1517139871283     
 C   -46.4057615701438       -20.0850292475404       -11.7002787395956     
 C   -12.9101747179426        23.4593873764719       -45.7770259084789     
 C   -12.2184830637677        24.6727280956665       -46.4258455711656     
 O   -12.9965976694565        25.8454805378315       -46.3404578862528     
 C   -13.1786288002138        26.2548599917399       -45.0035311380153     
 C   -14.4624253930191        27.0814935729154       -44.8032076933703     
 C   -7.24903210955615       -25.1664962773690       -32.7367640278493     
 C   -8.55356877742130       -25.3038295073604       -31.9299656229579     
 O   -8.25557118848145       -25.5262672299222       -30.5698845285034     
 C   -7.57186180974964       -26.7364262521339       -30.3329106345955     
 C   -6.96730908523726       -26.7807210631516       -28.9172340385109     
 C   -37.3571381162528        12.9139856533645       -21.0397611123978     
 C   -38.4918167112103        13.6788300664786       -21.7462436032447     
 O   -38.6154641183077        15.0536756023572       -21.4588192512528     
 C   -39.7602810366291        15.5898256365540       -22.0833489658026     
 C   -40.5625081611696        16.5538260343473       -21.1896369733767     
 C    24.8631030928317       -17.0855893919227        3.89814507502074     
 C    25.4614134396704       -16.0377326323406        2.94126423590653     
 O    25.6044764493174       -16.4567171850121        1.60257584542188     
 C    26.4442377059693       -15.5831781047231       0.881583122133939     
 C    26.4359176035386       -15.7235857784803      -0.651975716889083     
 C   -19.9068130676850       -24.9418688079702        31.1685867205497     
 C   -18.4236241340685       -24.8755217572635        30.7595040197911     
 O   -18.0820501612964       -26.0716319598058        30.0956145023080     
 C   -16.6981535441273       -26.1324508328304        29.8324962443482     
 C   -15.9303711489018       -26.7559972291925        31.0128717510688     
 C   -28.8605785672559        25.4701408904842       -14.4615940368767     
 C   -30.0872944555996        25.6264491113186       -15.3793826124129     
 O   -30.2408729860895        26.8817565569436       -16.0028555780304     
 C   -31.0767497997581        26.7596554731841       -17.1317936975551     
 C   -32.5567223581091        26.3989714187778       -16.9055759017812     
 C    30.3987215118370       -23.3390857473535        47.0679155077317     
 C    31.2525309524219       -23.9779100559077        45.9568291285656     
 O    30.3828266012916       -24.3761704591564        44.9209214687068     
 C    31.1939795367896       -24.7965910125143        43.8469673386123     
 C    30.3728222429699       -25.4504634307675        42.7201409051477     
 C   -35.0353811446912        12.4344323672930        17.7798964608414     
 C   -34.7932842325322        11.4454980383838        18.9353175867640     
 O   -33.5627833718021        10.7761522068629        19.0963935827813     
 C   -33.5102912843430        10.1795730000889        20.3728879348249     
 C   -32.1072806971078        9.95278351397295        20.9659427997347     
 C    13.7540957059252        43.6600683658377       -1.44529811707543     
 C    13.1187781425532        44.9202344747127       -2.06170137121509     
 O    13.1089430434437        45.9895489050529       -1.14269560038634     
 C    12.7388085720842        47.2166536464620       -1.73033020345431     
 C    12.6411721665271        48.3495743383381      -0.691800430203283     
 C   -41.6344773009236       -13.6542433895942       -17.9685140415671     
 C   -42.9900165170199       -14.3361826738483       -18.2313300346422     
 O   -43.4844289864115       -14.1037516942483       -19.5311891949966     
 C   -43.9803315287176       -15.2474271809652       -20.1901179086046     
 C   -44.5119266664952       -15.0354433789347       -21.6198226784323     
 C    31.2380636609033       -39.3975141058682        26.5765642275055     
 C    30.6848002539578       -40.5942474644080        25.7807446052964     
 O    29.7802325028962       -41.3182935577312        26.5842470168721     
 C    28.8380478156871       -42.0383448466103        25.8214140360878     
 C    28.0293527715974       -43.0963820741923        26.5948193647579     
 C   -5.58955408657193        11.5006037972832       -24.1215783953262     
 C   -5.21192621369368        12.6668389282558       -25.0537225949599     
 O   -5.06283252303261        13.8128211468679       -24.2458875171407     
 C   -6.30329133332314        14.2303384507588       -23.7214437728513     
 C   -6.46887061501401        15.7503050368619       -23.5374021191294     
 C   -25.8275211944842       -41.3576643675909       -12.6352911667623     
 C   -24.8420600973559       -40.8728529459848       -11.5557429688911     
 O   -23.5265560384858       -40.8448356148795       -12.0624635893312     
 C   -23.2668164654774       -39.5644470366070       -12.5927846645702     
 C   -21.8484763403582       -39.4792706524954       -13.1866217842978     
 C    18.1512753968148        21.5951681558159       -23.7407625822511     
 C    18.0055736691976        20.5780955243479       -24.8879043646337     
 O    18.4496832626165        19.2734604067502       -24.5899185161626     
 C    18.0687629916204        18.3904407961230       -25.6210713246213     
 C    17.9195018105900        16.8931266541895       -25.2934164575686     
 C    22.9260680136514       -31.6051941549349        32.2925697836804     
 C    21.9697628662278       -30.8208690612315        33.2101288348582     
 O    22.1264331406775       -31.3630739890536        34.5022472227292     
 C    21.3092442979945       -32.5075207885913        34.6049308067250     
 C    21.0304450854352       -32.9431762435371        36.0554691810372     
 C    30.0318668005295       -42.4847162295310        38.1327992870556     
 C    30.9906003206911       -42.1751859263665        39.2975400430787     
 O    31.5486098764152       -43.3561051860361        39.8287243093999     
 C    30.4397181114613       -44.0624968741678        40.3381061274460     
 C    30.9179127628170       -45.3045286350527        41.1128791471544     
 C    6.25102072652881        2.38855381675149       -24.0820500850806     
 C    6.71165974303154        3.85262774087618       -24.2081422782311     
 O    6.18933933591802        4.65684177463141       -23.1744484806542     
 C    6.58481875059266        5.98630346327190       -23.4278802288742     
 C    6.04485018723454        7.03943727404650       -22.4425227410108     
 C    27.8394480805109       -46.9187946876452        25.0014372775763     
 C    26.8290115286607       -46.2143104722981        24.0771429710852     
 O    27.4977924924925       -45.0824783982555        23.5674471151968     
 C    26.6102080004762       -44.1821307484911        22.9432132815289     
 C    27.4563217428937       -42.9615685840200        22.5358979377792     
 C   -37.9544987973018       -43.4374787635395       -9.81636336043627     
 C   -37.2577869235589       -42.9201367562143       -11.0885857515465     
 O   -37.0534300242815       -43.9975878513479       -11.9748357626823     
 C   -36.4219949556891       -43.4199615229856       -13.0954327370376     
 C   -36.1433839122467       -44.4504166431679       -14.2054437205248     
 C    28.9270628235399       -19.6763222720866        42.5125519692111     
 C    28.9059547017899       -19.9175895168371        40.9917151719818     
 O    27.9185724190071       -19.1719129388537        40.3155906600622     
 C    28.0276232986060       -19.2897768703886        38.9147637616547     
 C    26.8846701372567       -18.5694716162993        38.1755718626238     
 C    21.2834580007095        6.39144562087095       -17.4210102293632     
 C    20.8041514252994        4.93060179294295       -17.5093307658950     
 O    19.4121634608019        4.83485069201419       -17.7125619650009     
 C    19.0965417236950        3.87541438889213       -18.6964140368679     
 C    17.7377352239267        4.25302483997118       -19.3149942621608     
 C   -9.14073959360851        12.2771107796841       -22.3263695527325     
 C   -10.2839206145343        11.3524654354147       -22.7843740731425     
 O   -10.3112220860901        11.0842838325794       -24.1683664663573     
 C   -9.12761805779079        10.4191087091195       -24.5487919640881     
 C   -9.57137385075504        8.94569254687350       -24.6097170060903     
 C   -8.31995537345739        13.4300271013472        12.4161618253947     
 C   -9.53109063621678        13.0968705589306        13.3070928516508     
 O   -9.52371213966688        13.7777766341326        14.5417645333001     
 C   -10.5837910384515        13.2353938100344        15.2968496943745     
 C   -10.6258823763230        13.8411166766771        16.7120932705134     
 C    17.2430492097264        42.5020384644465       -9.87960780591897     
 C    17.8495060164990        43.8617358364500       -10.2733503589734     
 O    19.1787250514325        44.2732893439367       -10.0455299152662     
 C    19.4800652059597        45.3882124095093       -10.8543813658575     
 C    20.8004500937285        45.9867092282650       -10.3347934928359     
 C    37.2523075126301       -45.6293365374443       -28.0342865316583     
 C    36.8861318918983       -44.2029604834237       -28.4848048634698     
 O    36.3475263088980       -43.4468399124586       -27.4235379813665     
 C    35.8324354626992       -42.3527792923846       -28.1486674730889     
 C    36.9348124183673       -41.3563965817471       -28.5531088078393     
 C    6.55057581852699        21.7190442663076        11.8925301331197     
 C    7.52122119209983        22.9146278761519        11.8872965269817     
 O    8.18579297616176        23.0799962616939        10.6547790513178     
 C    7.34956756345159        23.7973236223936        9.77485376089298     
 C    7.52069083749104        23.2694305007658        8.33831906624751     
 C    39.0287698819199       -40.3961035014938        35.6960811651526     
 C    40.2833808460778       -40.6853042657438        34.8511467022669     
 O    41.1186951353627       -39.5523742882667        34.9337384159858     
 C    41.9383186046960       -39.6903781511960        36.0727170384079     
 C    43.3093048565067       -39.0372815260319        35.8168894651374     
 C   0.667895439654818       -36.5241899934412        10.0031754672645     
 C   0.210309313677131       -36.5657733026063        8.53331637003389     
 O   0.497217695144836       -35.3687481964942        7.84562736844531     
 C  -0.439703542869043       -35.3226964710005        6.79293661027482     
 C   0.325264709075804       -35.1155310129511        5.47252292577753     
 C   -1.64406664775892        2.55265256785297        3.77153595499138     
 C   -2.66051689265717        3.21813904771379        2.82519740839786     
 O   -3.01370138032512        4.49295791918118        3.31325401325668     
 C   -4.00907392511608        5.07825595763215        2.50408177988367     
 C   -4.14273786169246        6.56229063832901        2.89313353768444     
 C   -23.6736082361337       -12.9671265143805       -35.0819211206540     
 C   -24.8520365275012       -11.9894748756682       -35.2465541532680     
 O   -24.7945635407916       -10.9878578534439       -34.2558161033707     
 C   -26.0910038564261       -10.4793860837128       -34.0349112202563     
 C   -26.1302962032122       -9.73635396799134       -32.6865990760587     
 C   -13.6491737159431       -33.9058978625421        33.0729861079939     
 C   -14.0920977307121       -34.5472855245767        31.7448143630262     
 O   -14.7066631845915       -33.6078438712757        30.8916670311624     
 C   -15.5762995218957       -34.3447578343725        30.0617330266578     
 C   -16.9158213668642       -33.6212846577431        29.8296682916159     
 C    38.9955375844095       -14.1438658228648        5.32700931048894     
 C    38.5920341823009       -12.6666109648904        5.48980700419980     
 O    38.9022392093440       -12.0272309538234        4.27199432173581     
 C    38.0805722970232       -10.9214557957372        3.97161991377689     
 C    38.5216351331621       -10.3804671327087        2.59889230323220     
 C    11.0574069689506       -8.45242840465066        39.6619405688000     
 C    9.90671641879968       -7.65737031404786        40.3064511508390     
 O    8.67137212410976       -8.15634935276640        39.8448820017166     
 C    7.53679947980583       -7.59353766410168        40.4646302715000     
 C    6.54247137442313       -6.82662668974435        39.5731453148371     
 C    47.0193283822422       -13.5500694928016       -9.63315009322314     
 C    45.5519948639536       -13.5753364270887       -9.16635899633025     
 O    44.7397597850184       -12.6436554559530       -9.84484733926315     
 C    43.3627918983357       -12.6927673268669       -9.54543547714020     
 C    42.5283250302967       -11.9528559454610       -10.6074064962886     
 C   -15.9566175387817        9.10303204235659       -10.4306088540033     
 C   -15.7224237021937        8.77619060560735       -8.94402622188094     
 O   -15.8860101782036        7.41170244611979       -8.62856907041665     
 C   -16.4086516243264        7.25101187354151       -7.32890586070459     
 C   -16.3194097667629        5.80656956480815       -6.80239986900107     
 C    20.2603191782948       -13.9864256414610       -47.3602668492444     
 C    19.2596571374116       -14.1458449760085       -46.2005854465704     
 O    19.1038180309947       -12.9505618024565       -45.4690705835228     
 C    17.9611003790807       -12.3657423095497       -46.0524079890784     
 C    17.0301956366178       -11.6331163899527       -45.0684050042787     
 C    8.15715020091076       -23.4246068437920        15.7580506545643     
 C    7.77023107810515       -22.9696132865051        17.1775133892758     
 O    6.53377687343587       -23.4455959793769        17.6599272808328     
 C    6.22971746328013       -22.8741705315667        18.9125728143700     
 C    4.87378702129908       -23.3074686939732        19.5001879866250     
 C   -19.8269756889016        25.4173146056846       -21.0562535789912     
 C   -18.8977593652152        25.3537024628624       -19.8298317432918     
 O   -19.4640436732017        24.5204483049367       -18.8433677156899     
 C   -20.6025940023319        25.0661805980090       -18.2156899222834     
 C   -21.1568556645892        24.0595837408313       -17.1904372565606     
 C   -32.4439064137375        28.2173513267422       -20.9406359558886     
 C   -32.8828376114528        27.9758967838411       -22.3968773875834     
 O   -31.8681576009165        28.2721866112463       -23.3300110871780     
 C   -32.4166984479615        28.2270910417598       -24.6281518071062     
 C   -31.6203034400131        29.0706592983601       -25.6409369963104     
 C   -2.70709659293920       -42.9485207611323       -28.6610850961376     
 C   -1.30792728005701       -43.5806268308019       -28.5412220468875     
 O  -0.328244046177882       -42.7825891573208       -29.1668883476309     
 C   0.908317851069174       -43.1648698213934       -28.6075349994216     
 C    2.13208517657303       -43.2234253913216       -29.5405682410371     
 C  -0.820598611938740        3.41751180002627        33.0342055118873     
 C   -1.22132657364288        4.88197120374757        33.2918404387910     
 O  -0.410221714330504        5.37330225571494        34.3352983399530     
 C  -0.698037453698765        6.74068905096431        34.5237537785839     
 C   0.256321632390714        7.21167776239800        35.6368371627921     
 C    45.7015448367601       -37.5223970356496        42.6504277775833     
 C    44.8947967837056       -36.7698437712670        43.7248677075747     
 O    43.5649905946915       -37.2103054793479        43.5645222358603     
 C    42.8174230907592       -36.5486778367777        44.5602589930664     
 C    41.3279531708878       -36.8705068624213        44.3377917196271     
 C   -19.5451107408636       -33.8937629311949        37.9047055973297     
 C   -20.7905700952971       -34.5805336083963        38.4952790757305     
 O   -20.7312579626826       -35.9622632023442        38.2206755669070     
 C   -21.6788698916399       -36.5655147261793        39.0728605415977     
 C   -21.7130442211713       -38.0960289550308        38.9056942705257     
 C    13.6845822955614        2.71571749786325       -38.5776246465689     
 C    15.2099049745192        2.59928658698503       -38.7549226105985     
 O    15.6131066569384        1.84756065412556       -39.8776150048392     
 C    17.0215388742939        1.78128276505793       -39.8827072082709     
 C    17.7910243131661        3.06471333769252       -40.2464164001956     
 C    5.67441249190886       -18.0052893977067       -30.3753030434407     
 C    6.98505993230531       -17.5951972287930       -29.6784331129818     
 O    7.88043380139105       -18.6697330223562       -29.5001632337678     
 C    9.21182103361000       -18.3303126632655       -29.8168679191121     
 C    10.0962964911727       -19.5850324668665       -29.6945256487362     
 C    40.9861341850924       -28.4880167358967        26.9056330308904     
 C    41.0780183342834       -30.0192948163298        26.7701902624878     
 O    40.0965375494014       -30.5341984914489        27.6417815435258     
 C    39.8419249775112       -31.9169131159109        27.5351386556497     
 C    38.4489542618383       -32.2235268244494        26.9544434940426     
 C    44.4449539544780        33.2785635919990        36.5655121796026     
 C    43.2328562590437        33.4612394596805        37.4977399973004     
 O    43.3559740409875        34.7472608791090        38.0626228236150     
 C    42.3077372192825        35.0319236232302        38.9616593566498     
 C    42.7905595640685        36.2199702744073        39.8143105102303     
 C   -42.5945059110809        23.2869783091003       -14.5763096837143     
 C   -43.6229191938206        23.2600119373275       -15.7222760596075     
 O   -44.9300385244548        23.3458022119602       -15.2005665895134     
 C   -45.8991004662515        23.4950176169788       -16.2138551544674     
 C   -47.2309900734260        23.9391606479083       -15.5810887725559     
 C   -9.71374329261062       0.381665170158019      -0.165721104501404     
 C   -11.2373412684916       0.563337540911405      -3.440333115697491E-002
 O   -11.9037075505588       0.296412812361579        1.17919003333444     
 C   -13.3003011493202       0.234554771079047       0.995342535044559     
 C   -14.0866481162195       0.781260266698210        2.20131011355078     
 C    43.3057381691882        13.9696742374132       -18.2245771193685     
 C    44.8212311205521        14.0353970250669       -18.4902115101187     
 O    45.3556064469656        12.7713345388818       -18.8137709767785     
 C    45.2924467744325        12.4271825814975       -20.1796663922456     
 C    45.6200812004001        10.9386497923237       -20.3999209499175     
 C   -4.27987590258379        4.89300259677062       -34.9518388067521     
 C   -4.55865439256152        4.23599896846438       -33.5872037691255     
 O   -5.40618111924198        3.11259898020491       -33.6753661242772     
 C   -5.72296042082653        2.55815962082012       -32.4182472473000     
 C   -6.02644742654556        1.05090685776601       -32.5058314771900     
 C    28.9153996694049        45.0946042954780       -39.8456998141944     
 C    29.5796368615693        44.3145239239226       -38.6959765577281     
 O    30.8703445010308        44.0341556203366       -39.1895037512088     
 C    31.6317549676623        43.1754122877766       -38.3704103559921     
 C    33.0031152578706        42.8559046247641       -38.9940064267111     
 C    44.5179032197223        3.61698400019787        38.7885989439623     
 C    43.1121290928054        3.87709366854899        39.3610865547637     
 O    43.1186320805015        4.84047882995254        40.3906245233998     
 C    43.6998634742698        5.99791960923485        39.8333087158433     
 C    44.0092193023426        7.11068268340505        40.8519566256240     
 C    26.7537906603443        40.5521826559566       -37.7897863319333     
 C    26.6979974920314        41.3677585035637       -36.4846720997033     
 O    27.8301151422319        42.2076497135984       -36.4531432504396     
 C    27.9033607853410        42.8624475982729       -35.2065579922276     
 C    29.1110223645473        43.7835518745023       -34.9521829263881     
 C    1.95263163979968        30.1080826873527        22.8730224309529     
 C    1.72847770739543        29.8510073997124        24.3747771749349     
 O    1.98057877071556        28.4950251243404        24.6677939145160     
 C    1.39941065792626        28.1597497998963        25.9079286174801     
 C    2.05560095335826        26.8597874853239        26.4090259419318     
 C    43.8463101020885        31.4755983018237       -21.7645820794240     
 C    43.1429004783006        31.8389794780669       -23.0854791313984     
 O    44.0764253433302        31.6378148219076       -24.1228632427134     
 C    43.4273165096570        31.6195177499880       -25.3744314347055     
 C    44.4337523665256        31.2380521947105       -26.4758655670285     
 C    36.4791402654730        11.3585698542120       -31.4872146007672     
 C    36.8816211152898        12.0777830556300       -30.1863143215617     
 O    38.0421779581456        12.8643262556235       -30.3365118447423     
 C    37.9946642325854        13.9494685238706       -29.4374519448764     
 C    39.3314580288399        14.7076034254549       -29.5364472427211     
 C    42.7427090298282        6.62799677367028        20.5427110517070     
 C    43.1019991109079        5.87905967064391        21.8394777436559     
 O    43.6167720864979        4.59383645414877        21.5724351359899     
 C    43.7279264993361        3.77310390320814        22.7135498437792     
 C    43.7680254177119        2.30240642117380        22.2585473769914     
 C   -18.3319486624008        25.7904182343726       -34.5883987380343     
 C   -16.9820826438860        25.9029733754805       -35.3210603736268     
 O   -17.0949999246590        25.5006741064305       -36.6677253923860     
 C   -15.8709615444790        25.0570111383900       -37.2090138687420     
 C   -15.2507862095282        24.0361185382898       -36.2370328480017     
 C   -39.1820983777246        11.2830932288533        31.8383111647934     
 C   -38.4387862032610        12.4339247997050        31.1349807255080     
 O   -37.7433565612142        11.9889835585656        29.9919555325131     
 C   -36.7741466589703        12.8892545502418        29.5038527698300     
 C   -35.9144946392688        12.2555803348368        28.3943296085333     
 C   -46.9879617418058        25.8129064635629       -19.0896822433448     
 C   -46.3643387789908        24.6436094906158       -19.8741814398432     
 O   -44.9924765509883        24.5520229716167       -19.5615992525030     
 C   -44.2875530846650        23.6930690971097       -20.4295745678756     
 C   -42.8938438409474        23.2137326613442       -19.9830352336354     
 C   -39.0657159108786        21.5179480913851       -20.7433152185609     
 C   -39.3719888119163        22.8360095776350       -20.0081208030798     
 O   -38.5814362778927        23.8897841927545       -20.5108010577185     
 C   -38.9708571469165        25.0788386126957       -19.8607233906762     
 C   -38.1379126202054        26.1553211239637       -20.5811226341905     
 C    44.3392108107366        29.5088519047400        34.5491053942328     
 C    43.2474667126306        29.8480463340438        33.5172905060965     
 O    42.2581636705073        30.4761065712301        34.3014598221478     
 C    41.0172456103148        30.2062435977110        33.6887638588744     
 C    40.5139363689199        31.5515026769436        33.1332964260139     
 C   -43.4361765038319        27.5359270116457        11.1231518408177     
 C   -42.7889804605943        28.7827535751537        11.7541516840416     
 O   -43.4509614998520        30.0247897993439        11.6691292847129     
 C   -42.6566054140398        31.1414852107047        12.0009270652643     
 C   -43.3910294401297        32.4609532835336        11.6989144721705     
 C   -29.9345804984961        23.4102114025935       -20.8884958489578     
 C   -28.6043240701021        22.7996677297060       -21.3673008804827     
 O   -27.6152451361018        23.8030417768177       -21.4226639622673     
 C   -26.7990114856735        23.7259270699379       -22.5697977599959     
 C   -25.7900087545909        24.8890602845105       -22.5947149333073     
 C    27.5104867766078        8.52345255596011        41.7282378677865     
 C    27.8664220939003        9.47203201045906        40.5684503577630     
 O    28.9038239194554        10.3659865150453        40.9042248103200     
 C    29.2548237631147        11.1125104224520        39.7607209120226     
 C    29.7376253285165        12.5363979339742        40.0939374402389     
 C   -26.5763008081820       -34.2671337355282       -34.8254666201579     
 C   -27.6344199329862       -35.3834895629447       -34.7497461848926     
 O   -27.3759657026131       -36.1731787926309       -33.6105824485294     
 C   -26.2956057483905       -37.0570708734745       -33.8097235008873     
 C   -26.1255274767080       -38.0018537276924       -32.6055453614174     
 C   -29.0403425510890       -10.3663629219479        43.7672831820292     
 C   -29.2065098468928       -10.7755545424447        42.2919694365769     
 O   -30.2291279577285       -11.7242026675848        42.0860067676685     
 C   -31.4834992825121       -11.0846648470610        42.1611330325857     
 C   -32.7459480582649       -11.9652775472938        42.1128566150620     
 C    42.7173334745088       -25.9631085338394        16.9518318279481     
 C    43.9912575403210       -25.7404724611887        17.7879841189209     
 O    43.8759915370212       -26.0321644672833        19.1626590655861     
 C    45.0100165458507       -25.4046901130630        19.7179636794198     
 C    44.9857345383758       -25.2150482232505        21.2460450219672     
 C    42.4444869214579        4.41394707048445        3.36931292247470     
 C    42.8105499685105        3.16641988982899        2.54391981667098     
 O    41.7428702559784        2.26485001677695        2.35594779115307     
 C    41.7076648965164        1.72209345163672        1.05507274194108     
 C    41.5279565256852        2.77614330634139      -5.320071571742702E-002
 C   -39.1011379307369        26.2617300082230       -13.7387978552105     
 C   -38.1693420201190        25.2683701269978       -14.4575415698460     
 O   -37.5374565126908        24.3991726091483       -13.5446790022098     
 C   -36.8541851661306        23.3705043219363       -14.2251801571348     
 C   -36.1053376149320        22.3528705354337       -13.3447058114936     
 C   -6.01134927892240       -21.3019113902158        31.9682796755446     
 C   -6.76481018563874       -20.0121049811211        31.5937184801327     
 O   -7.95784303448639       -20.3066703815609        30.9023390377429     
 C   -8.53424323827891       -19.1015645441199        30.4511376130624     
 C   -9.46646649786246       -19.3746682249520        29.2561646319841     
 C   -6.18600017410148       -29.4286529162776        41.3192747518125     
 C   -5.84288465811088       -29.5465504326540        42.8159283250614     
 O   -4.43571836681550       -29.5644372094249        42.9034770474035     
 C   -4.00408124624956       -29.7467706550128        44.2333431725340     
 C   -2.58832981456099       -29.1682187954927        44.4136536858650     
 C   -22.0908403064407       -16.5772742985428       -28.7562075600584     
 C   -22.6924304360562       -17.7527541109271       -29.5486320212067     
 O   -22.3124245937367       -17.8724723652596       -30.9011721449396     
 C   -21.2321703805321       -18.7727903955902       -31.0040229063146     
 C   -21.4833911670300       -20.1352207783175       -30.3315217387671     
 C    39.5776893587041       0.238501249409931       -24.1789674385286     
 C    38.4817140771378      -0.726437595480430       -24.6681823277310     
 O    37.6562494526707      -0.900714065880288       -23.5384312256986     
 C    36.6191195400999       -1.82117260333446       -23.7938086430217     
 C    35.6189379158579       -1.91138258414199       -22.6262962749539     
 C   -8.57348738528663        29.1343775494730        16.6015479919329     
 C   -8.74332239440691        28.4831914222505        17.9867240447832     
 O   -7.67007971739351        27.6458569100677        18.3543145205438     
 C   -8.01047866848273        26.5387574803635        19.1584036989599     
 C   -6.72608601955654        25.7328013830902        19.4273954169594     
