! This is the input file for a short simulation of water

# Run_Name
npt.out
!------------------------------------------------------------------------------

# Sim_Type
NPT_MC
!------------------------------------------------------------------------------

# Nbr_Species
1
!------------------------------------------------------------------------------

# VDW_Style
LJ cut_tail 12.0
!------------------------------------------------------------------------------

# Charge_Style
coul Ewald 12.0 0.000001
!------------------------------------------------------------------------------

# Intra_Scaling
0.0 0.0 0.0 1.0
0.0 0.0 0.0 1.0
!----------------------------------------------vdw, coul lines for each species

# Mixing_Rule
LB
!------------------------------------------------------------------------------

# Seed_Info
21498 489625
!------------------------------------------------------------------------------

# Rcutoff_Low
0.85
!------------------------------------------------------------------------------

# Molecule_Files
spce.mcf 600
!----------------------------------------------------------one line per species

# Box_Info
1
CUBIC
30.
!-------------------------------------------------------line 1: number of boxes
!--------------------------------------------------------------line 2: box type
!--------------------------------------------------------------line 3: box size

# Temperature_Info
300.0
!------------------------------------------------------------------------------

# Pressure_Info
1.0
!------------------------------------------------------------------------------

# Move_Probability_Info

# Prob_Translation
0.499168
1.00

# Prob_Rotation
0.499168
38.0

# Prob_Volume
0.001664
200.

# Done_Probability_Info
!---------------------one line for each box and one entry/line for each species
!-----------------------------------------each molecule moves per volume change

# Start_Type
checkpoint
npt.inp.chk
!--------make_config: one line for each species and one entry/line for each box
!------------------------------------------------------------read_old: filename
!----------------------------------------------------------checkpoint: filename

# Run_Type
Production   20000  100
!-------------------------Equilibration: update maximum widths every 100 sweeps
!-----------------------------Production: report success ratio every 100 sweeps


# Average_Info
1
!------------------------------------------------------------------------------

# Simulation_Length_Info
Units        Steps
Prop_Freq    6010
Coord_Freq   6010
MCsteps      60100
# Done_Simulation_Length_Info
!------------------ 601 moves = 1 sweep; output every 10 sweeps; run 100 sweeps

# Property_Info 1 
Energy_Total
Pressure
Volume
Density
!------------------------------------------------------------------------------

# Fragment_Files
species1/frag1/frag1.dat  1
!---------------------------------------------------------one line per fragment

# CBMC_Info
kappa_ins 12
kappa_rot 0
kappa_dih 10
rcut_cbmc 6.5 
!------------------------------------------------------------------------------

END
