# Run_Name
gemc_diethylether
!------------------------------------------------------------------------------

# Sim_Type
GEMC
!------------------------------------------------------------------------------

# Nbr_Species
1
!------------------------------------------------------------------------------

# VDW_Style
LJ cut_tail 12.0
LJ cut_tail 60.0
!------------------------------------------------------------------------------

# Rcutoff_Low
1.0
!------------------------------------------------------------------------------

# Mixing_Rule
LB
!------------------------------------------------------------------------------

# Charge_Style
coul Ewald 12.0 0.000001 
coul Ewald 60.0 0.000001
!------------------------------------------------------------------------------

# Intra_Scaling
0.0 0.0 0.0 1.0
0.0 0.0 0.0 1.0
!----------------------------------------------vdw, coul lines for each species

# Molecule_Files
diethylether.mcf   300
!----------------------------------------------------------one line per species

# Box_Info
2
CUBIC
35.00

CUBIC
142.0

!-------------------------------------------------------line 1: number of boxes
!--------------------------------------------------------------line 2: box type
!--------------------------------------------------------------line 3: box size
!--------------------------------------------------------------repeat for second box

# Temperature_Info
343.15 343.15

!----------------------------------------------------------one temperature per box

# Seed_Info
200  24000

!------------------------------------------------------------------------------

# Move_Probability_Info

# Prob_Translation
0.30
0.5
14.0

# Prob_Rotation
0.30
30.0
180.0

# Prob_Regrowth
0.30  
1.0

# Prob_Volume
0.005
100.0
100.0

# Prob_Swap
0.095
insertion method
reservoir

# Done_Probability_Info

!---------------------one line for each box and one entry/line for each species
!-----------------------------------------each molecule moves per volume change

# CBMC_Info
kappa_ins 12
kappa_rot 0
kappa_dih 12
rcut_cbmc 6.5  6.5

!------------------------------------------------------------------------------

# Start_Type
read_old
Init_Config/liq.initial
Init_Config/vap.initial

!--------make_config: one line for each species and one entry/line for each box
!------------------------------------------------------------read_old: filename
!----------------------------------------------------------checkpoint: filename


# Run_Type
Equilibration 100 50

!-------------------------Equilibration: update maximum widths every 100 steps/update maximum
!-------------------------volume displacement every 100 steps


# Average_Info ( 0 == yes, 1 = No)
1

!------------------------------------------------------------ 0 == yes, 1 == no

# Simulation_Length_Info
Units       Steps
Prop_Freq   100
Coord_Freq  2200
MCsteps     2200
# Done_Simulation_Length_Info
!------------------ simulation length every 2200 steps, XYZ output every 2200 steps, property
!---------------------------------------output every 100 steps

# Property_Info 1 
Energy_Total
Density
Nmols
Volume
Pressure

!------------------------------------------------------------------------------

# Property_Info 2
Energy_Total
Density
Nmols
Volume
Pressure

!------------------------------------------------------------------------------

# Fragment_Files
species1/frag1/frag1.dat  1
species1/frag2/frag2.dat  2
species1/frag3/frag3.dat  3

!---------------------------------------------------------one line per fragment

# Pair_Energy
TRUE
!------------------------------------------------------------------------------

END
