! This is the input file for a short simulation of diethylether

# Run_Name
npt.out
!------------------------------------------------------------------------------

# Sim_Type
NPT_MC
!------------------------------------------------------------------------------

# Nbr_Species
1
!------------------------------------------------------------------------------

# VDW_Style
LJ cut_tail 14.0
!------------------------------------------------------------------------------

# Charge_Style
coul Ewald 14.0 0.000001
!------------------------------------------------------------------------------

# Intra_Scaling
0.0 0.0 0.0 1.0
0.0 0.0 0.0 1.0
!----------------------------------------------vdw, coul lines for each species

# Mixing_Rule
LB
!------------------------------------------------------------------------------

# Seed_Info
82638601 2497026012
!------------------------------------------------------------------------------

# Rcutoff_Low
2.0
!------------------------------------------------------------------------------

# Molecule_Files
dee.mcf 220
!----------------------------------------------------------one line per species

# Box_Info
1
CUBIC
34.2101610953864
!-------------------------------------------------------line 1: number of boxes
!--------------------------------------------------------------line 2: box type
!--------------------------------------------------------------line 3: box size

# Temperature_Info
343.0
!------------------------------------------------------------------------------

# Pressure_Info
4.01
!------------------------------------------------------------------------------


# Move_Probability_Info

# Prob_Translation
0.331825
0.38134

# Prob_Rotation
0.331825
29.807

# Prob_Regrowth
0.331825
1.0

# Prob_Volume
0.004525
949.18

# Done_Probability_Info
!---------------------one line for each box and one entry/line for each species
!-----------------------------------------each molecule moves per volume change

# Start_Type
read_old
npt.inp.xyz
!--------make_config: one line for each species and one entry/line for each box
!------------------------------------------------------------read_old: filename
!----------------------------------------------------------checkpoint: filename

# Run_Type
Production   7333 100
!---------------------------Production: report success ratio every 100 sweeps


# Average_Info
1
!------------------------------------------------------------ 0 == yes, 1 == no

# Simulation_Length_Info
Units        Steps
Prop_Freq    2210
Coord_Freq   2210
MCsteps      22100
# Done_Simulation_Length_Info
!------------------ 221 moves = 1 sweep; output every 10 sweeps; run 100 sweeps

# Property_Info 1 
Energy_Total
Pressure
Volume
Density
!------------------------------------------------------------------------------

# Fragment_Files
species1/frag1/frag1.dat  1
species1/frag2/frag2.dat  2
species1/frag3/frag3.dat  3
!---------------------------------------------------------one line per fragment

# CBMC_Info
kappa_ins 12
kappa_rot 0
kappa_dih 10
rcut_cbmc 6.5 
!------------------------------------------------------------------------------

END
