! This is the input file for a short simulation of pentane

# Run_Name
equil.out
!------------------------------------------------------------------------------

# Sim_Type
NPT_MC
!------------------------------------------------------------------------------

# Nbr_Species
1
!------------------------------------------------------------------------------

# VDW_Style
LJ cut_tail 14.0
!------------------------------------------------------------------------------

# Charge_Style
NONE
!----------------------------------------"NONE" or "Coul Ewald cutoff accuracy"

# Intra_Scaling
0.0 0.0 0.0 1.0
!----------------------------------------------vdw, coul lines for each species

# Mixing_Rule
LB
!---------------------------------------------------------------LB or geometric

# Seed_Info
265834938 610725582
!------------------------------------------------------------------------------

# Rcutoff_Low
2.0
!----------------------------------------------------------------------Angstrom

# Molecule_Files
pentane.mcf   200
!----------------------------------------------------------one line per species

# Box_Info
1
CUBIC
120.
!-------------------------------------------------------line 1: number of boxes
!--------------------------------------------------------------line 2: box type
!-------------------------------------------------line 3: box size in Angstroms

# Temperature_Info
336.0
!------------------------------------------------------------------------Kelvin

# Pressure_Info
3.38
!---------------------------------------------------------------------------bar

# Move_Probability_Info

# Prob_Translation
0.331675
50.

# Prob_Rotation
0.331675
180.

# Prob_Regrowth
0.331675
1.0

# Prob_Volume
0.004975
300000.

# Done_Probability_Info
!---------------------one line for each box and one entry/line for each species
!------------------------------------------------- 1 sweep = 200 molecule moves
!-------------------------------------------------         =   1 volume change

# Start_Type
make_config
200
!--------make_config: one line for each species and one entry/line for each box
!------------------------------------------------------------read_old: filename
!----------------------------------------------------------checkpoint: filename

# Run_Type
Equilibration   6667  100
!-------------------------Equilibration: update maximum widths every 100 sweeps
!---------------------------Production: report success ratio for each move type

# Average_Info
1
!------------------------------------------------------------ 0 == yes, 1 == no

# Frequency_Info
freq_type    none
Nthermofreq  2010
Ncoordfreq   2010
MCsteps      201000
# Done_Frequency_Info
!----------------- 201 moves = 1 sweep; output every 10 sweeps; run 1000 sweeps

# Property_Info 1
Energy_Total
Pressure
Volume
Density
!------------------------------------------------------------------------------

# Fragment_Files
species1/frag1/frag1.dat  1
species1/frag2/frag2.dat  2
species1/frag3/frag3.dat  3
!---------------------------------------------------------one line per fragment

# CBMC_Info
kappa_ins 12
kappa_rot 0
kappa_dih 10
rcut_cbmc 6.5
!------------------------------------------------------------------------------

END
